57

P 	  -1.957710647543	  -0.539710383914	   4.263898384169
P 	   0.057105776447	  -0.031714665944	   1.933440438871
C 	  -0.826503424530	  -1.939801666680	   3.774393517310
C 	  -0.468984220765	  -1.781155285710	   2.296124387185
H 	   0.072481505131	  -1.854986242620	   4.407646253157
H 	  -1.290652559024	  -2.920084886514	   3.963686136550
H 	   0.276282621990	  -2.519737395365	   1.964191009359
H 	  -1.363491173048	  -1.945130046427	   1.673399535737
C 	  -3.578938066606	  -1.182094782658	   3.669867757463
C 	  -2.082852137728	  -0.676713419646	   6.082255756685
C 	   1.874264829496	  -0.023382394015	   2.194813869430
C 	  -0.068208878420	  -0.005471090902	   0.100835358419
C 	  -3.947111202589	  -0.886835103858	   2.350785537853
C 	  -4.433471985481	  -1.970610097204	   4.449682188490
C 	  -5.622684832572	  -2.464108538391	   3.915039596277
C 	  -5.129069411853	  -1.391435672255	   1.812309466247
C 	  -5.969845138486	  -2.181382401399	   2.594478735519
H 	  -4.177112575029	  -2.196113331761	   5.487274424064
H 	  -6.282755335065	  -3.073362276448	   4.536545502490
H 	  -3.301490662015	  -0.245650723298	   1.745508433826
H 	  -5.396996014279	  -1.156895989702	   0.779876383338
H 	  -6.900716217846	  -2.571503053204	   2.176922307425
C 	  -1.833889085517	  -1.853988978149	   6.798778304123
C 	  -2.450692745332	   0.478963241511	   6.782226155811
C 	  -2.586630786681	   0.454710467947	   8.168396514047
C 	  -1.959621314200	  -1.875730790867	   8.187149338918
C 	  -2.340463227079	  -0.723129520015	   8.872953411417
H 	  -2.618323381973	   1.406264635396	   6.227526360106
H 	  -2.875529199431	   1.363123295859	   8.701144459204
H 	  -1.542213254717	  -2.767912499311	   6.276498954412
H 	  -1.759923678161	  -2.799321032838	   8.734910804852
H 	  -2.440599678516	  -0.741950538670	   9.960431201207
C 	   2.620456471020	  -1.125664279281	   2.622656902657
C 	   2.532236535743	   1.198242596500	   1.991544466601
C 	   3.904381989404	   1.308588595413	   2.188795848457
C 	   3.996198938331	  -1.012532604110	   2.833056374083
C 	   4.641150222621	   0.201160608107	   2.612566921257
H 	   1.955968627654	   2.074683463185	   1.681344765071
H 	   4.400793654144	   2.266915674563	   2.022514659782
H 	   2.138207462714	  -2.088720010049	   2.801823599425
H 	   4.563980805038	  -1.881858201540	   3.172115726187
H 	   5.717043845666	   0.289378465389	   2.777627290101
C 	   0.840896417014	  -0.689868362099	  -0.716842971233
C 	  -1.135306665817	   0.677829471591	  -0.490883576306
C 	  -1.303717281672	   0.662506426400	  -1.875639393406
C 	   0.674428134540	  -0.702214922040	  -2.099270166425
C 	  -0.401129280137	  -0.029010665543	  -2.680725141965
H 	  -1.834251369528	   1.236320235953	   0.136485924874
H 	  -2.140999400144	   1.200029614657	  -2.325896676599
H 	   1.692160616267	  -1.209359491599	  -0.268649584827
H 	   1.388619564668	  -1.239033004779	  -2.727582552023
H 	  -0.530718021604	  -0.038620629240	  -3.765276364732
