69

P 	  -2.071684561639	  -0.649436567015	   4.161088172559
P 	  -0.029261470425	  -0.223301936690	   1.781789355195
C 	  -0.934063990493	  -2.045857900162	   3.666501325797
C 	  -0.642524866087	  -1.944623115011	   2.168323494569
H 	  -0.000650236790	  -1.949609283875	   4.236420562205
H 	  -1.358320722411	  -3.027378155088	   3.908739885639
H 	   0.076106200681	  -2.714968254323	   1.864938022267
H 	  -1.562644179233	  -2.120074300312	   1.595667732119
C 	  -3.731052874394	  -1.367745634061	   3.761650102722
C 	  -2.067640470693	  -0.553079195898	   6.004278190076
C 	   1.778041285275	  -0.383468429825	   2.152360467145
C 	  -0.084500837474	  -0.011959685121	  -0.051079313089
C 	  -4.537465475151	  -0.590788630518	   2.919028179924
C 	  -4.218040752146	  -2.618764574532	   4.210946030669
C 	  -5.478772899355	  -3.038222440664	   3.766777659295
C 	  -5.788334892346	  -1.024968809795	   2.490075126436
C 	  -6.258102340530	  -2.263837063923	   2.912348428352
C 	  -3.476430584791	  -3.541373160184	   5.149841384621
H 	  -5.860476505676	  -4.003333248182	   4.111403315533
H 	  -4.169239948098	   0.382339322081	   2.592352298317
H 	  -6.388972989208	  -0.393349074614	   1.832628841763
H 	  -7.236068995295	  -2.626500518915	   2.587913055085
H 	  -2.714445414560	  -3.029086263225	   5.747757117970
H 	  -4.181610850499	  -4.013564957500	   5.848869349177
H 	  -2.985257892643	  -4.355521493586	   4.591899808280
C 	  -3.304932287242	  -0.501723546488	   6.666550327993
C 	  -0.884488160297	  -0.372574926606	   6.755208308941
C 	  -0.994288434999	  -0.195056946620	   8.140826568629
C 	  -3.390406347808	  -0.316521318086	   8.041780904289
C 	  -2.224464206081	  -0.170823675978	   8.787918833259
C 	   0.498074582179	  -0.360615446292	   6.151613648078
H 	  -0.078873463777	  -0.059378108193	   8.723086582007
H 	  -4.227457548327	  -0.611256028725	   6.093186818431
H 	  -4.368827575724	  -0.282877161594	   8.525458805800
H 	  -2.271504507513	  -0.025074020776	   9.869241229903
H 	   0.948237200258	  -1.366821862073	   6.161104763399
H 	   0.495746455728	  -0.005217273476	   5.114672225206
H 	   1.162402030671	   0.299340325239	   6.726242143962
C 	   2.294629361632	   0.558980613093	   3.051730081846
C 	   2.643276008731	  -1.374021985289	   1.628387564825
C 	   3.976689396690	  -1.384513776309	   2.057965310478
C 	   3.623465529675	   0.532416360819	   3.464945799498
C 	   4.468631009136	  -0.454074148889	   2.968703397597
C 	   2.234645353767	  -2.426437427418	   0.624367667135
H 	   4.649947872551	  -2.146720185023	   1.655891124416
H 	   1.631314916643	   1.334478606306	   3.436339314174
H 	   3.991147465769	   1.282417752751	   4.167977651206
H 	   5.515054269337	  -0.496079047955	   3.279243427338
H 	   2.030421621978	  -3.387219258534	   1.124970044227
H 	   1.347855713146	  -2.148965548557	   0.043562815673
H 	   3.052856177144	  -2.605267163107	  -0.087897449710
C 	   1.060831487285	   0.482613140540	  -0.695829747940
C 	  -1.270500785270	  -0.177974091104	  -0.800887161912
C 	  -1.240597225321	   0.115066939664	  -2.170846612805
C 	   1.065380928513	   0.774387595430	  -2.055167253918
C 	  -0.092870245465	   0.580443372757	  -2.802317328219
C 	  -2.574739199618	  -0.655021193773	  -0.211552337227
H 	  -2.157039765615	  -0.017176056288	  -2.752285392948
H 	   1.975576502010	   0.643013284796	  -0.122104900862
H 	   1.973877984374	   1.156241434889	  -2.525498097622
H 	  -0.108177247012	   0.803363636575	  -3.871327456762
H 	  -2.676072239519	  -1.749487911038	  -0.295380016339
H 	  -2.673163636374	  -0.390054722525	   0.847526199498
H 	  -3.424124638830	  -0.206911132121	  -0.745237414193
