57

P 	  -1.974421200221	  -0.554299415788	   4.241480288057
P 	   0.034095475586	  -0.043175941105	   1.912957183860
C 	  -0.839716498519	  -1.950292817968	   3.752227528904
C 	  -0.493106347812	  -1.792079396116	   2.270949437509
H 	   0.063931703226	  -1.857970655719	   4.377915391765
H 	  -1.295774128945	  -2.933104847582	   3.948293250678
H 	   0.246435134953	  -2.533654938889	   1.932310237648
H 	  -1.392912623630	  -1.950741417578	   1.654149169874
C 	  -3.599900125380	  -1.207362787398	   3.679052078918
C 	  -2.070748958706	  -0.671008769713	   6.061365216312
C 	   1.845724142232	  -0.038462360383	   2.206633940590
C 	  -0.056006358124	  -0.003628244607	   0.080940234683
C 	  -4.013096735785	  -0.891588976030	   2.377998533631
C 	  -4.424708997080	  -2.021703258165	   4.465360299354
C 	  -5.625072543963	  -2.519340886230	   3.965190155616
C 	  -5.204170222733	  -1.391045059985	   1.858639568986
C 	  -5.995763820664	  -2.200431395489	   2.663856374764
H 	  -4.137909592688	  -2.268050036460	   5.490095206623
H 	  -6.279498480439	  -3.147976769944	   4.570943050927
H 	  -3.393283133716	  -0.232285636354	   1.765567901508
H 	  -5.532549516069	  -1.150397725992	   0.846555948903
F 	  -7.141670510711	  -2.676176780410	   2.181052336394
C 	  -1.802083065849	  -1.835502624211	   6.792084143942
C 	  -2.431756077823	   0.491589417755	   6.755117007630
C 	  -2.542042241122	   0.495162512725	   8.141890995974
C 	  -1.897611385568	  -1.845772604901	   8.181670014021
C 	  -2.271320060736	  -0.678082702953	   8.836586954180
H 	  -2.616731574374	   1.411069688825	   6.193272574235
H 	  -2.821737113925	   1.394654973342	   8.692023853944
H 	  -1.512915570221	  -2.756459717525	   6.281118526394
H 	  -1.685953259796	  -2.743832705107	   8.763844741499
F 	  -2.365790958069	  -0.683181254463	  10.163855731143
C 	   2.589956652178	  -1.149064114585	   2.616254517415
C 	   2.508400185773	   1.187725326849	   2.045295987918
C 	   3.876074329592	   1.301712616534	   2.260825801741
C 	   3.961719987422	  -1.049216307124	   2.850047912683
C 	   4.586840392604	   0.175479818637	   2.663784562980
H 	   1.939461620759	   2.073629679410	   1.749780352578
H 	   4.398171703568	   2.251122164810	   2.134137224069
H 	   2.110459607222	  -2.118318520075	   2.765686909701
H 	   4.549465947887	  -1.909164108697	   3.174483553767
F 	   5.896332340269	   0.277425379408	   2.880926220644
C 	   0.858034438133	  -0.693130854902	  -0.727857749639
C 	  -1.092742814077	   0.710578390265	  -0.529013973180
C 	  -1.232018092453	   0.727822449915	  -1.915489256980
C 	   0.734807049845	  -0.683138196379	  -2.113184800707
C 	  -0.314566089539	   0.027518411209	  -2.687777062656
H 	  -1.798661034278	   1.272793523734	   0.086667872663
H 	  -2.033940994358	   1.283836765518	  -2.403207817940
H 	   1.687633217761	  -1.239478483296	  -0.271589420299
H 	   1.440103833546	  -1.212432939845	  -2.755623150101
F 	  -0.435873787606	   0.041269353231	  -4.013154271747
