73

P 	   1.443973702038	   0.069119899380	  -0.176426255809
P 	  -1.645658955213	  -0.107366596455	  -0.081346483422
C 	   0.720250583435	  -0.398255880514	   1.459766609474
C 	  -0.716491150736	   0.119378226893	   1.532952794026
H 	   0.736174462134	  -1.492983720149	   1.504914542988
H 	   1.332360322691	  -0.013708578069	   2.285270516925
H 	  -1.269213445566	  -0.351081810849	   2.356161518318
H 	  -0.717600424594	   1.204653168573	   1.721467998050
C 	   1.789419158036	   1.860575611722	   0.060492995456
C 	   3.120049037553	  -0.657484068434	  -0.359573236479
C 	  -2.911053376667	  -1.402299024829	   0.232894068902
C 	  -2.670179917909	   1.417023957186	  -0.157652707462
C 	   1.062337602867	   2.784387688034	  -0.689224129233
C 	   2.728638811674	   2.343269641603	   0.996867029773
C 	   2.938721591258	   3.717942691627	   1.139508596887
C 	   1.252385004312	   4.158986143093	  -0.540405022476
C 	   2.196769012813	   4.616727221775	   0.370205359577
O 	   3.375931499725	   1.412318720289	   1.726490613889
H 	   3.669599178110	   4.099493513272	   1.852817342730
H 	   0.330175127884	   2.404603703352	  -1.404491388330
H 	   0.666602028632	   4.860325435613	  -1.136803546147
H 	   2.365999249914	   5.688803020713	   0.495277872872
C 	   4.427308556488	   1.785589439065	   2.569614567068
H 	   5.225136847710	   2.311586504602	   2.017984910353
H 	   4.082596106060	   2.425473900790	   3.400712066924
H 	   4.836065083567	   0.855656257374	   2.984043334215
C 	   3.693766013037	  -0.450385205818	  -1.616701022910
C 	   3.853556332566	  -1.387825974927	   0.596523113790
C 	   5.133821075648	  -1.859744522146	   0.284399864724
C 	   4.972662600026	  -0.907589873032	  -1.929915114638
C 	   5.689247393244	  -1.613005567112	  -0.971079753941
O 	   3.268877642301	  -1.606665508424	   1.795175881564
H 	   5.709811488722	  -2.425450478014	   1.016600225291
H 	   3.109266685192	   0.082087881851	  -2.372478835858
H 	   5.394794234006	  -0.723046367577	  -2.919102183053
H 	   6.689610671557	  -1.990205630161	  -1.195212243528
C 	   3.948976744544	  -2.326182124396	   2.781712565903
H 	   4.179904710456	  -3.356257812997	   2.457951614311
H 	   4.890316912978	  -1.831094825031	   3.080024706663
H 	   3.282257959344	  -2.369351489876	   3.652065339611
C 	  -4.257219396892	  -1.221054692626	  -0.086760976368
C 	  -2.496442393794	  -2.675462524364	   0.671062071029
C 	  -3.413075525607	  -3.723434341159	   0.786672346484
C 	  -5.180512055693	  -2.260615597105	   0.030014479630
C 	  -4.753966141283	  -3.509538003421	   0.466826098090
O 	  -1.183122163173	  -2.800177254813	   0.965971894400
H 	  -3.089875545410	  -4.708761131555	   1.122619871171
H 	  -4.592780208917	  -0.245739042126	  -0.446389349138
H 	  -6.227481204160	  -2.091680582081	  -0.228574998631
H 	  -5.464052587812	  -4.334371704066	   0.558720214548
C 	  -0.626470014545	  -4.071496594200	   1.165889075296
H 	  -1.012122061710	  -4.547236611901	   2.084173854013
H 	  -0.811152082307	  -4.729940158491	   0.301429028061
H 	   0.456024464093	  -3.922371343472	   1.269159612323
C 	  -2.656105416017	   2.180328134371	  -1.324263050104
C 	  -3.465314278235	   1.858232236563	   0.923573830448
C 	  -4.213299540114	   3.034490957971	   0.815054383350
C 	  -3.398363259004	   3.357000674011	  -1.440255667476
C 	  -4.172302922320	   3.777563913660	  -0.366108764937
O 	  -3.456633816290	   1.084365864779	   2.027167711927
H 	  -4.828808947172	   3.382568431689	   1.644484318693
H 	  -2.049929512966	   1.836190485046	  -2.164245093353
H 	  -3.369464187086	   3.933839660199	  -2.366073854720
H 	  -4.759589594116	   4.696043412202	  -0.436810105638
C 	  -4.302805475217	   1.387440339879	   3.100954651835
H 	  -4.052918578019	   2.360021138005	   3.559173243904
H 	  -5.362320670696	   1.396420942118	   2.792720019667
H 	  -4.156758698880	   0.595661674368	   3.845379684032
