69

P 	  -1.930875874162	  -0.567251030084	   4.286257337499
P 	   0.097138776540	  -0.083240694846	   1.973832043843
C 	  -0.818456812306	  -1.985098929432	   3.805204963728
C 	  -0.439558422181	  -1.830616902965	   2.331432353865
H 	   0.073515098323	  -1.913931535926	   4.449932180675
H 	  -1.297442608736	  -2.959395576741	   3.987387168735
H 	   0.308315137448	  -2.572572928488	   2.013228264295
H 	  -1.324863682374	  -1.994621424683	   1.695567998979
C 	  -3.560693648207	  -1.194356751293	   3.696213564213
C 	  -2.066967375306	  -0.700931711221	   6.105365763402
C 	   1.913076247107	  -0.085692431496	   2.247248516463
C 	  -0.001684260162	  -0.061088651756	   0.138065139693
C 	  -4.426293724625	  -1.967266480422	   4.480778838365
C 	  -3.922647047912	  -0.904420305464	   2.376475360205
C 	  -5.108433947894	  -1.397012528264	   1.836352885306
C 	  -5.617077625482	  -2.450502009316	   3.950228454661
C 	  -5.955978627988	  -2.171077880623	   2.624437338747
H 	  -3.270747485638	  -0.275144104928	   1.766101813520
H 	  -5.374734194389	  -1.171968077933	   0.803041565807
H 	  -4.177242389678	  -2.191879953536	   5.519843855941
H 	  -6.285085607518	  -3.051702483724	   4.570259585247
C 	  -7.259808041853	  -2.699455488338	   2.079206582610
F 	  -8.306260588172	  -2.116912456946	   2.673895785437
F 	  -7.378188836758	  -2.491416710770	   0.766505920294
F 	  -7.374844971966	  -4.015367194995	   2.290775080171
C 	  -2.438169605467	   0.455020626472	   6.798888673616
C 	  -1.820501175878	  -1.876824691848	   6.826533012590
C 	  -1.952058124236	  -1.895924790072	   8.210609644882
C 	  -2.580958278051	   0.438383596414	   8.184272410439
C 	  -2.336731335236	  -0.737688427843	   8.889377548464
H 	  -1.527362572839	  -2.793714161641	   6.311360755704
H 	  -1.759734748280	  -2.816800830371	   8.764690461261
H 	  -2.605654185100	   1.381971219940	   6.244298376578
H 	  -2.874829601118	   1.343868584911	   8.716138006293
C 	  -2.455289191086	  -0.782664520615	  10.393459939439
F 	  -3.226632310255	  -1.802160316816	  10.786790755345
F 	  -1.259798113096	  -0.954607926609	  10.967276534125
F 	  -2.981966887310	   0.336961555017	  10.891020732757
C 	   2.590586815810	   1.115042844759	   1.995926576421
C 	   2.636135311034	  -1.174422517249	   2.743511688038
C 	   4.006827744242	  -1.071013245602	   2.972490674779
C 	   3.959189733061	   1.219706555166	   2.209874169460
C 	   4.670493081829	   0.123025993702	   2.699923224158
H 	   2.140376797602	  -2.121209975670	   2.965043515506
H 	   4.558789577336	  -1.924630519028	   3.369504565009
H 	   2.036022333635	   1.985141891022	   1.634269477396
H 	   4.473742830999	   2.160778741298	   2.011145833355
C 	   6.163541163836	   0.208628864290	   2.898362239105
F 	   6.560670854962	  -0.504508861501	   3.956553020854
F 	   6.820938177993	  -0.269718338811	   1.835025875989
F 	   6.570560036248	   1.466266879012	   3.081174477156
C 	  -1.037442003708	   0.654651821529	  -0.471797542533
C 	   0.896914007415	  -0.775123528365	  -0.662414739989
C 	   0.754143386270	  -0.789121799059	  -2.046909449204
C 	  -1.184958140777	   0.642678452735	  -1.855527888905
C 	  -0.290672715620	  -0.083564373411	  -2.642708512523
H 	   1.725691380668	  -1.320709656072	  -0.204131662485
H 	   1.457667177527	  -1.347427264140	  -2.665602634384
H 	  -1.728405159165	   1.238184262464	   0.140653120155
H 	  -1.993239916041	   1.207711641620	  -2.323801778271
C 	  -0.486984822222	  -0.106188656697	  -4.139063811828
F 	   0.549633527178	  -0.656370925729	  -4.774341147345
F 	  -1.577201432334	  -0.806882669171	  -4.470985547043
F 	  -0.652207142722	   1.126858335195	  -4.627018315035
