26

C 	   0.030361689239	  -0.001906882116	  -0.000292112904
X 	   1.131973886006	  -0.031141527128	  -0.008391515949
C 	  -0.446391032230	   1.459679562655	   0.003129928953
C 	  -0.494382537672	  -0.712032455058	   1.257680384598
C 	  -0.512674864500	  -0.712119219628	  -1.250477560400
C 	  -1.982476027675	   1.503299103020	   0.014160970277
C 	  -2.030638953769	  -0.672803963175	   1.271203572376
C 	  -2.048981884059	  -0.672775435984	  -1.241929017496
C 	  -2.569704864458	  -1.381218742877	   0.018463957027
C 	  -2.502771123634	   0.790163548696	   1.272179948130
C 	  -2.520900316589	   0.790234865192	  -1.236248996028
H 	  -0.142346291945	  -1.757296917972	   1.276654796756
H 	  -0.046263228357	   1.985256628506	   0.886469705478
H 	  -0.058867855249	   1.985410108906	  -0.885720750079
H 	  -0.095390918798	  -0.223027689427	   2.162247669834
H 	  -0.126569607761	  -0.223239352769	  -2.160686665436
H 	  -0.161026678878	  -1.757420026060	  -1.274374660694
H 	  -2.136869355399	   1.304194586359	   2.176914235635
H 	  -2.167979269889	   1.304182386102	  -2.146184112326
H 	  -2.253594948265	  -2.438156435894	   0.016089069122
H 	  -2.405742187958	  -1.181777437384	   2.173713271168
H 	  -2.322327287520	   2.551680537373	   0.016642316950
H 	  -2.436957344047	  -1.181765861763	  -2.138965612096
H 	  -3.672760644714	  -1.376968109181	   0.026638601466
H 	  -3.604607289172	   0.832695558604	   1.302998894421
H 	  -3.623052062694	   0.832877170997	  -1.251120318782
