21

C 	   0.401114400272	  -0.003722499704	   0.025916288546
X 	   1.495101910079	  -0.045439546142	   0.043214655489
C 	  -0.328524293815	  -1.188478698098	   0.142782327274
C 	  -0.233368448731	   1.236122041755	  -0.108840690823
C 	  -1.628960906446	   1.272131550210	  -0.120590981168
C 	  -1.726052294308	  -1.115688068096	   0.127518729410
C 	  -2.391715169301	   0.104596089541	  -0.002960492241
C 	   0.580423553007	   2.497255376680	  -0.248682056768
H 	  -2.138655373833	   2.235630946102	  -0.220292105938
C 	   0.379645536213	  -2.513261261454	   0.268824893667
H 	  -2.309278873666	  -2.036466310162	   0.224458268249
C 	  -3.897287955053	   0.176689390507	  -0.015982123549
H 	  -4.268639104094	   0.845890870803	   0.775514523700
H 	  -4.266841012824	   0.572376540989	  -0.975144516871
H 	  -4.351417189924	  -0.812283129129	   0.136962819632
H 	   1.361583682784	   2.555647026650	   0.524192936830
H 	   1.086254100718	   2.533051817582	  -1.226759013840
H 	  -0.047874495313	   3.395116928612	  -0.165430884568
H 	   0.849256534305	  -2.800786518122	  -0.685463425018
H 	   1.178102549198	  -2.468863277587	   1.024636720094
H 	  -0.314280149267	  -3.316091270924	   0.554408127894
