26
  
C 	   0.430611526120	   0.009810281179	  -0.013534475235
X 	   1.532698685309	  -0.035885397125	  -0.024581246996
C 	  -0.153502180900	  -1.404339205754	   0.128800467169
C 	  -0.049212135611	   0.887849663422	   1.153123655991
C 	   0.312703432880	  -2.016860468774	   1.459150100745
C 	  -1.688453022980	  -1.325983730530	   0.114914522865
C 	   0.416942618278	   0.270758897914	   2.481471177049
C 	  -1.584404873979	   0.961729802735	   1.136641006295
C 	  -0.167420017380	  -1.142848786423	   2.628825126373
C 	  -1.702186845559	  -1.064519184488	   2.609823846366
C 	  -2.172734380705	  -0.450490402982	   1.281806118457
H 	   0.118421480021	   0.453689015586	  -0.973835476302
H 	   0.371083035200	   1.901260675338	   1.048865549706
H 	   0.191929530237	  -2.032892456531	  -0.707917613778
H 	   1.412686135545	  -2.098282809252	   1.474203342842
H 	   1.518724167810	   0.229777406202	   2.514424393416
H 	   0.094320265607	   0.903468197840	   3.325581541037
H 	  -0.085872432247	  -3.040022839424	   1.564512510755
H 	  -2.037385092012	  -0.905115064028	  -0.843155242233
H 	  -1.931407475964	   1.420400168535	   0.195404461982
H 	   0.168557658546	  -1.584053357954	   3.581118538390
H 	  -2.120122355171	  -2.337724567110	   0.197452981676
H 	  -1.941028030408	   1.606620467984	   1.957420331688
H 	  -3.273296491483	  -0.394725368958	   1.269509966787
H 	  -2.060399465056	  -0.454673326905	   3.456336617769
H 	  -2.134846736111	  -2.071467610490	   2.735488797182
