40
 
C 	   0.584129990586	   0.330745995338	  -0.139299610957
X 	   1.658356331794	   0.523000648449	  -0.174881460474
C 	   0.111286981618	  -0.970485001415	  -0.058308914964
C 	  -0.314308747266	   1.387117573843	  -0.146037538578
C 	  -1.699066907174	   1.179838500113	  -0.126912558643
C 	  -1.258718648236	  -1.258909835032	  -0.035947314769
C 	  -2.146575907091	  -0.162707327337	  -0.149906494466
H 	   0.079860180423	   2.403887817188	  -0.174916178477
C 	  -2.600988982035	   2.439707136710	  -0.093055947384
H 	   0.835899210840	  -1.784817937567	  -0.018682796469
C 	  -1.665485388282	  -2.747667327616	   0.102824255253
O 	  -3.485377180513	  -0.409658983289	  -0.295925843862
C 	  -2.081717081067	   3.387847588122	   1.010702493932
C 	  -2.508223343628	   3.156617931202	  -1.453368195123
C 	  -4.085691056915	   2.192942958392	   0.230463137636
H 	  -4.627219462320	   1.703083002508	  -0.586364989174
H 	  -4.213857298956	   1.583774612837	   1.134997267842
H 	  -4.568974249368	   3.167799358282	   0.401553428049
H 	  -1.471421745728	   3.435110063645	  -1.694800523475
H 	  -2.878691503286	   2.514208124038	  -2.266791786684
H 	  -3.114034493388	   4.077073586717	  -1.446045475821
H 	  -2.108997403885	   2.893052795303	   1.993439695665
H 	  -1.053852552774	   3.732403018932	   0.834637678868
H 	  -2.719195628649	   4.283966803124	   1.062349115727
C 	  -1.316147037127	  -3.486636634818	  -1.202949455407
C 	  -0.859200467675	  -3.372753775136	   1.263063463716
C 	  -3.146091499113	  -3.009909996390	   0.433037248995
H 	  -3.487449307934	  -2.415705845165	   1.291105975770
H 	  -3.817780376761	  -2.803872809564	  -0.407775684936
H 	  -3.261637954526	  -4.075860000136	   0.685240044103
H 	   0.225932258682	  -3.348384179508	   1.095235514659
H 	  -1.066545390195	  -2.849364850746	   2.208870983847
H 	  -1.143140311748	  -4.428868990448	   1.388898282543
H 	  -1.877706362092	  -3.075258965186	  -2.055466530626
H 	  -0.244652450043	  -3.405604606266	  -1.439865855917
H 	  -1.564848061506	  -4.556553113384	  -1.117196854623
C 	  -3.907300834848	  -0.534090223120	  -1.628394286633
H 	  -3.405492396460	  -1.374642185434	  -2.140115598596
H 	  -4.989790862772	  -0.720324860220	  -1.614081135672
H 	  -3.709033060593	   0.385535933040	  -2.207175554865
