18

C 	   0.027933875954	  -0.000038112406	   0.000143131003
X 	   1.120624313434	  -0.000014735408	   0.000488268190
C 	  -0.664626081225	   1.208362517801	   0.000438783796
C 	  -0.664574666444	  -1.208467931241	  -0.000586067861
C 	  -2.063686721674	  -1.224119818611	  -0.001015115161
C 	  -2.063738736437	   1.223955296191	   0.000022611253
C 	  -2.740635742239	  -0.000096461084	  -0.000692444293
H 	  -0.113444805588	  -2.152944348538	  -0.000821567402
C 	  -2.814825112384	  -2.530885273453	  -0.001785476495
H 	  -0.113536055093	   2.152861956980	   0.001003972352
C 	  -2.814932542697	   2.530689158341	   0.000361133779
H 	  -3.835172070370	  -0.000119810508	  -0.001015593384
H 	  -2.561144304917	  -3.132821096625	  -0.888352316199
H 	  -2.561711514733	  -3.133533415930	   0.884459059068
H 	  -3.902210552626	  -2.372216433117	  -0.002075455277
H 	  -2.561893690169	   3.132563673618	   0.887152794713
H 	  -2.561227286883	   3.133419612524	  -0.885658400051
H 	  -3.902311305900	   2.371975221468	  -0.000124318032
