12

C 	   0.424598265185	   0.013673983362	  -0.003843960210
X 	   1.513398068872	  -0.030991969463	  -0.009545067466
C 	  -0.326303174717	  -1.147924417498	   0.117556608083
C 	  -0.230335691857	   1.232461657458	  -0.118236239513
C 	  -1.622401699960	   1.303449720841	  -0.112207376529
C 	  -1.719514075863	  -1.104774721916	   0.126313748203
C 	  -2.362096818689	   0.127538699330	   0.010909644353
F 	   0.463664004072	   2.353479430003	  -0.235756697892
F 	  -2.242827110981	   2.464787224566	  -0.221088821898
F 	   0.275598551712	  -2.321636495285	   0.227604693439
F 	  -2.431268146832	  -2.211814752134	   0.242598566699
F 	  -3.680114170942	   0.181380640724	   0.018383902729
