14

C 	   0.098665469286	   0.009247327044	   0.000323165112
X 	   1.197191224705	   0.039841877154	  -0.004795288776
C 	  -0.379046425403	   1.467174689981	  -0.125033642322
C 	  -0.320723348656	  -0.848345376928	  -1.206960066476
C 	  -0.314990321559	  -0.626059548910	   1.339799126870
F 	  -0.214282253102	   2.114261489290	   1.025354021027
F 	   0.331309183361	   2.104560621279	  -1.049985508092
F 	  -1.661523123986	   1.539845507575	  -0.460282926361
F 	  -0.166089238886	  -0.170344186567	  -2.340824792543
F 	   0.438773146364	  -1.936432994356	  -1.282591259491
F 	  -1.589540356003	  -1.230078978477	  -1.122958868766
F 	  -0.100551592440	  -1.938692379600	   1.323231018981
F 	   0.405879369472	  -0.113851854285	   2.331938667132
F 	  -1.599066733162	  -0.420180193206	   1.607398353701
