7
  
C 	   0.430013452319	  -0.013699411800	  -0.003089802717
X 	   1.551575729194	  -0.033576511743	  -0.013612893017
O 	  -0.195308379417	  -1.033176654949	   0.103814059360
C 	  -0.176801952374	   1.355050228670	  -0.132059907865
H 	   0.178922529127	   1.996614837045	   0.689849891812
H 	   0.161517964904	   1.822954785182	  -1.070191729844
H 	  -1.272441343749	   1.292115727595	  -0.114489617728
