14
  
C 	   0.324998300048	   0.021382114802	  -0.036426660454
X 	   1.304752430227	  -0.055437034209	  -0.573508582690
O 	  -0.209648520365	  -0.957275998788	   0.417380567378
C 	  -0.224097835210	   1.398748343375	   0.055085016738
C 	   0.474258854680	   2.469980348855	  -0.509770144684
C 	  -1.443506485381	   1.623085636375	   0.705979928165
C 	  -1.957253689870	   2.911948991545	   0.789566994481
C 	  -0.041287779455	   3.761766322484	  -0.426080130993
C 	  -1.256141528248	   3.980327019690	   0.223046232221
H 	  -1.967650969018	   0.768354265757	   1.138889285212
H 	  -2.907941487205	   3.090627359996	   1.296142269458
H 	   1.426676757414	   2.288409689553	  -1.016370279677
H 	   0.502473672838	   4.599442925489	  -0.867331211522
H 	  -1.662208720456	   4.992218015070	   0.290007716368
