16
  
C 	  -0.003436800132	   0.029829799945	  -0.063254768079
X 	   1.086814090861	   0.079435445805	  -0.112037867155
C 	  -0.734670775487	   1.206368649140	   0.022371252557
C 	  -0.650081896711	  -1.209532183607	  -0.088648393802
C 	  -2.038564155414	  -1.249230401671	  -0.026975137281
C 	  -2.135502242302	   1.162960631388	   0.084873240657
C 	  -2.789578009707	  -0.073531555705	   0.059172691837
H 	  -0.073502845906	  -2.133896784145	  -0.155590338125
H 	  -2.559081598241	  -2.209550869744	  -0.045692878251
O 	  -2.762345881948	   2.356510886743	   0.168397004827
H 	  -3.876851628103	  -0.137369294298	   0.106580743728
H 	  -0.246367860593	   2.182050771021	   0.043976404739
C 	  -4.160546554205	   2.389945681359	   0.235267584831
H 	  -4.626181469728	   1.952717476495	  -0.665535346523
H 	  -4.542841557869	   1.860151266279	   1.125522665686
H 	  -4.446670814513	   3.446660481003	   0.303733140349
