11

C 	   0.186704922845	  -0.001794233558	  -0.014138808122
X 	   1.285810617394	  -0.046745504701	   0.014734932091
H 	  -0.103027266076	   1.059908925415	  -0.069472904980
H 	  -0.143109740079	  -0.482143172737	  -0.949303256148
C 	  -0.435557533139	  -0.680340077254	   1.202060296612
H 	  -0.096460927675	  -1.728936984767	   1.250173153387
H 	  -0.059151621070	  -0.200891182985	   2.121342592374
C 	  -1.960362251741	  -0.640452349052	   1.196650839987
H 	  -2.331192602310	   0.397115988967	   1.184830781499
H 	  -2.368249041494	  -1.145425145250	   0.306338826675
H 	  -2.382614556655	  -1.135331264077	   2.084112546628
