16
  
C 	  -0.007224797645	   0.060824723139	   0.247940393664
X 	   1.079510718156	   0.027553777506	   0.153328224264
C 	  -0.838460969104	  -0.219434556387	  -0.827698119022
C 	  -0.556213819254	   0.395887237354	   1.494643527382
C 	  -1.946201143383	   0.446404913230	   1.645929207620
C 	  -2.228443539877	  -0.171381230798	  -0.683973764511
C 	  -2.769414073354	   0.161349713509	   0.552822613145
O 	   0.328235864288	   0.651808807621	   2.483015096862
H 	  -2.400276085643	   0.703472777827	   2.603066201109
H 	  -0.396503010103	  -0.478292688116	  -1.792579395134
H 	  -2.880176550614	  -0.392944858795	  -1.531067927282
H 	  -3.853400621812	   0.204204930433	   0.682260004324
C 	  -0.150182688456	   0.991895006643	   3.754183074102
H 	  -0.747906732404	   1.920334522014	   3.734119402305
H 	  -0.762765802942	   0.184488980314	   4.192637461134
H 	   0.729583252150	   1.152507944512	   4.389247000035
