15

C 	  -0.027289513285	   0.050539097950	   0.190347734596
X 	   1.055170683057	   0.003802356892	   0.040653637080
C 	  -0.881331661931	  -0.226486324895	  -0.873996677549
C 	  -0.532535614716	   0.387826698413	   1.453388357472
C 	  -1.920390419619	   0.439172183011	   1.616733229009
C 	  -2.264270575180	  -0.171352928675	  -0.696233761726
C 	  -2.780690539302	   0.162505310168	   0.553439581112
C 	   0.404866290180	   0.686315476630	   2.595101804967
H 	  -2.337056463593	   0.699454969575	   2.593563038024
H 	  -0.464853092109	  -0.486572022510	  -1.849915078818
H 	  -2.935986426357	  -0.388923379590	  -1.529504040681
H 	  -3.861515372127	   0.209867590804	   0.705264513588
H 	   1.059261814770	  -0.173715555930	   2.806376345193
H 	   1.057421565417	   1.541067675737	   2.358127577034
H 	  -0.143640675204	   0.926178852420	   3.516606740707
