8
 
O 	   0.427247973549	  -0.014061393770	  -0.205648342746
X 	   1.267970786856	  -0.219883514082	   0.228142032863
C 	  -0.417892240336	  -1.012712746930	   0.099175653713
O 	  -0.093562253811	  -1.941662141572	   0.788379622220
C 	  -1.771409299263	  -0.805634807786	  -0.520362103179
H 	  -2.208012195476	   0.132809310584	  -0.149641014635
H 	  -1.671652053758	  -0.711883494379	  -1.610896055351
H 	  -2.423721717757	  -1.648503212067	  -0.269191792883
