12

C 	   0.416549282736	   0.012027246933	  -0.003836726523
X 	   1.507363415882	  -0.032739528098	  -0.009857085627
C 	  -0.330955228181	  -1.158710287973	   0.118389159376
C 	  -0.234437482822	   1.239609045621	  -0.118864267105
C 	  -1.626858812997	   1.304449002870	  -0.112091094688
C 	  -1.723930088006	  -1.109468111839	   0.126863739930
C 	  -2.360317433239	   0.125331095945	   0.011006070921
H 	   0.343294447177	   2.161328817856	  -0.215118631159
H 	  -2.145616456105	   2.259846389674	  -0.202020975645
H 	   0.171546926225	  -2.123944392304	   0.209599056897
H 	  -2.317561103818	  -2.019614624098	   0.222590965653
Cl	  -4.102132466856	   0.195925345421	   0.021108787965
