20
 
C 	   0.489192690111	   0.051562064388	  -0.017546407231
X 	   1.580216909754	   0.026945690840	  -0.029935270374
C 	  -0.248240524247	  -1.107597741435	   0.215607642145
C 	  -0.200643613853	   1.242592763375	  -0.234672432684
C 	  -1.591340890079	   1.284210573900	  -0.221335114273
C 	  -1.639276278048	  -1.086403050574	   0.233003884612
C 	  -2.349503553169	   0.115227079391	   0.013847638885
H 	   0.350781928730	   2.167763364555	  -0.420075028459
H 	  -2.085460614378	   2.238971634911	  -0.397636524225
H 	   0.265592851245	  -2.056368311134	   0.389192426849
H 	  -2.173002517574	  -2.017492707558	   0.420580630275
N 	  -3.729939099534	   0.144693006326	   0.029192432577
C 	  -4.471814886356	  -1.070382472688	   0.253170432781
H 	  -4.252216715964	  -1.838577416805	  -0.510117328929
H 	  -4.263111135443	  -1.514756374310	   1.243629899248
H 	  -5.546647045804	  -0.856905131778	   0.205624958771
C 	  -4.425834922241	   1.390555416307	  -0.172279961802
H 	  -4.155368396305	   2.145935601375	   0.587409213508
H 	  -4.223479476739	   1.829656223677	  -1.166335880436
H 	  -5.506960710102	   1.221022787238	  -0.098629211235
