24
 
C 	   0.040529104557	   0.013092264738	  -0.037060219335
X 	   1.131811020640	   0.044109358594	  -0.068533799904
C 	  -0.697906043613	   1.191322691604	   0.000319746905
C 	  -0.632086421873	  -1.208844677617	  -0.034794883930
C 	  -2.022518954994	  -1.242350068514	   0.004648574421
C 	  -2.093252942051	   1.150985987937	   0.040077249460
C 	  -2.785974373590	  -0.064639252289	   0.043068187096
H 	  -0.069874661262	  -2.145152194658	  -0.064044303893
H 	  -2.523087284020	  -2.213716670613	   0.005094038613
H 	  -0.188132051970	   2.157568671020	  -0.001267075787
H 	  -2.638124375715	   2.094989497173	   0.068787357483
C 	  -4.318823247179	  -0.152215564257	   0.088024523867
C 	  -4.822209686106	  -0.888639876164	  -1.166932482071
C 	  -4.743945406154	  -0.928331796410	   1.348209087819
C 	  -4.977992757081	   1.232190355964	   0.129996347491
H 	  -4.675923855375	   1.802877845464	   1.021484824119
H 	  -4.733708979594	   1.828882703606	  -0.762250065338
H 	  -6.072445622728	   1.120486243626	   0.163824984394
H 	  -4.530498357330	  -0.349171018536	  -2.081051630326
H 	  -4.414009927210	  -1.907766217125	  -1.235068652955
H 	  -5.920829371753	  -0.969030633909	  -1.151468243584
H 	  -4.339855703934	  -1.951379467188	   1.354511601917
H 	  -4.387884016124	  -0.421838456278	   2.258319973947
H 	  -5.841716085541	  -1.002339726168	   1.403644859602
