15

C 	   0.442402941576	   0.013023519264	  -0.003928792863
X 	   1.533813880809	  -0.028663432598	  -0.009817272251
C 	  -0.304663597504	  -1.156152610522	   0.117665840749
C 	  -0.215516465072	   1.238178620889	  -0.118641786405
C 	  -1.607077664164	   1.288650223995	  -0.110751421965
C 	  -1.698965480024	  -1.099894460901	   0.125035632963
C 	  -2.371864802375	   0.120534867833	   0.011241512724
H 	   0.359535628379	   2.162124449390	  -0.214813801937
H 	  -2.113453062625	   2.253803822389	  -0.201870692375
H 	   0.198857186548	  -2.121318449386	   0.208876962337
H 	  -2.275027724318	  -2.024249900026	   0.221403369313
C 	  -3.877308691989	   0.191373200450	   0.019988512673
H 	  -4.239217013242	   0.815071423628	   0.852151588484
H 	  -4.259409783147	   0.637795402540	  -0.911234969044
H 	  -4.328385352849	  -0.805103676941	   0.125703317602
