14
 
Si	  -0.541233100172	  -0.089536052104	  -0.080785708339
X 	  -1.781622094932	  -0.848806479007	  -0.442746684038
C 	   0.837963048096	  -1.317581424417	   0.287812788215
C 	  -0.895433339418	   0.961834281251	   1.440594743516
C 	  -0.056827401137	   1.009082972771	  -1.531271138735
H 	   0.861032028358	   1.574303224067	  -1.302432433093
H 	   0.132666460765	   0.412796005062	  -2.437524961476
H 	  -0.850409834424	   1.735487443376	  -1.766245653932
H 	  -1.200933135357	   0.337251799092	   2.294634403746
H 	   0.001308273932	   1.527821412991	   1.740346214015
H 	  -1.701926007671	   1.686228531975	   1.246818689373
H 	   1.059160265027	  -1.944326301292	  -0.590322975027
H 	   1.764551318425	  -0.790557347060	   0.567082779770
H 	   0.566610518504	  -1.986639066701	   1.119324936000
