6
 
S 	   0.281267255445	   0.077341161936	  -0.010695559828
X 	   1.627306589371	   0.000444876736	  -0.016096063898
C 	  -0.042095845073	  -1.701152959469	   0.168921834840
H 	   0.350415535006	  -2.274091534032	  -0.681862903447
H 	   0.368037342207	  -2.097477379537	   1.107546351735
H 	  -1.133871876960	  -1.817601165632	   0.191146340600
