14

C  0.237300  0.015460  0.062700 
X  1.782989  -0.087275 -0.010631
C  0.059520  1.503920  0.231140 
C  0.136730  -0.491670 -1.354390
C  -0.440230 -0.838950 1.105010 
H  -0.121720 -1.901620 1.011290 
H  -0.171270 -0.497290 2.129910 
H  -1.547220 -0.789500 0.993480 
H  0.316450  1.816630  1.268300 
H  0.728270  2.061450  -0.462710
H  -0.993890 1.799100  0.022550 
H  0.799540  0.093990  -2.030550
H  0.453340  -1.557330 -1.414710
H  -0.909830 -0.410720 -1.726510
